4
Lattice="5 0 0 0 5 0 0 0 5"
Ga 0.028814 -0.044917 0.285450
Ga 2.706516 2.379548 0.037928
Ga 2.440308 0.049296 2.573117
Ga -0.172131 2.582749 2.413305
1
Lattice="4 0 0 0 4 0 0 0 4"
N 1.768999 0.270888 1.705446
2
Lattice="4 0 0 0 4 0 0 0 4"
N 0.102312 -0.203830 0.256609
Ga 2.233827 2.074812 2.061545
4
Lattice="5 0 0 0 5 0 0 0 5"
N -0.003714 -0.021372 0.191142
Ga 2.245528 2.312564 0.005043
Ga 2.733145 -0.138738 2.287960
Ga 0.146076 2.257762 2.784547
8
Lattice="8 0 0 0 8 0 0 0 8"
N 0.295604 0.207245 0.262794
Ga 1.857919 1.959535 1.919910
N 3.752949 4.287860 -0.220102
Ga 5.778130 5.751785 2.179060
N 4.282583 0.068382 4.181446
Ga 6.039969 1.705196 6.001205
N 0.060032 4.273156 3.784467
Ga 1.813436 5.838242 6.201837
2
Lattice="4 0 0 0 4 0 0 0 4"
Ga 0.295633 0.142376 -0.096602
Ga 1.873007 2.083859 2.029016
2
Lattice="2 2 0 2 -2 0 0 0 4"
N -0.015750 -0.265133 0.017505
N 2.280493 -0.126946 2.195588
1
Lattice="2 2 0 2 0 2 0 2 2"
N 0.254564 -0.039968 -0.290847
4
Lattice="4 0 0 0 4 0 0 0 4"
N 0.013750 0.199993 0.031294
N 2.227114 2.069536 -0.026844
N 2.064534 0.292672 1.906420
N -0.131838 1.735252 2.009850